test/test_files/matlab_test_files/d_ddsg_mdl.m
Bus.con = [ ...
  1  20  1  0  1  1;
  2  20  1  0  1  1;
 ];

Line.con = [ ...
  2  1  100  20  60  0  0  0.01  0.1  0.001  0  0  0  0  0  1;
 ];

SW.con = [ ...
  2  100  20  1  0  1.5  -1.5  1.1  0.9  0.8  1  1  1;
 ];

PV.con = [ ...
  1  10  20  0.8  1.005  0.8  -0.2  1.1  0.9  1  1;
 ];

Ddsg.con = [ ...
  1  1  30  20  60  0.01  1  0.8  1.2  3  10  3  25  1  0.01  0.01  75  4  3  0.011236  1  0  0.7  -0.7  1;
 ];

Wind.con = [ ...
  2  15  1.225  4  0.1  20  2  5  15  1  5  15  0  50  0.01  0  50;
 ];

Bus.names = {...
  'Bus1'; 'Bus2'};

Varname.idx = [...
    1;     2;     3;     4;     5;     6;     7;
    8;     9;    10;    11;    12;    13;    14;
   15;    16;
   ];
